<?xml version="1.0" ?>
<routes>
    <vType id="car" accel="2.6" decel="4.5" sigma="0.5" length="5.0" minGap="2.5" maxSpeed="13.89" guiShape="passenger"/>
    <route id="route_01_E9_to_E5_original" edges="E9 -E12 E20 E15 -E0 E5"/>
    <route id="route_02_E9_to_E5_short" edges="E9 -E12 E13 E5"/>
    <route id="route_03_E9_to_E4" edges="E9 -E11 E16 E15 E4"/>
    <route id="route_04_E9_to_E14" edges="E9 -E12 -E14"/>
    <route id="route_05_E9_to_E18" edges="E9 -E11 -E18"/>
    <route id="route_06_E10_to_E19" edges="E10 -E11 E16 E19"/>
    <route id="route_07_E10_to_E5" edges="E10 -E12 E13 E5"/>
    <route id="route_08_E10_to_E17" edges="E10 -E11 -E17"/>
    <route id="route_09_E10_to_E4" edges="E10 -E11 E16 E15 E4"/>
    <route id="route_10_E14_to_E9" edges="E14 E12 -E9"/>
    <route id="route_11_E14_to_E5" edges="E14 E13 E5"/>
    <route id="route_12_E14_to_E19" edges="E14 E20 E19"/>
    <route id="route_13_E14_to_E4" edges="E14 E13 E0 E4"/>
    <route id="route_14_E2_to_E14" edges="-E2 -E13 -E14"/>
    <route id="route_15_E2_to_E4" edges="-E2 E0 E4"/>
    <route id="route_16_E2_to_E17" edges="-E2 -E13 E12 -E11 -E17"/>
    <route id="route_17_E2_to_E19" edges="-E2 -E13 E20 E19"/>
    <route id="route_18_E5_to_E14" edges="-E5 -E13 -E14"/>
    <route id="route_19_E5_to_E3" edges="-E5 E0 E3"/>
    <route id="route_20_E5_to_E18" edges="-E5 -E13 E12 -E11 -E18"/>
    <route id="route_21_E5_to_E19" edges="-E5 -E13 E20 E19"/>
    <vehicle id="veh_0" type="car" route="route_16_E2_to_E17" depart="2.04" departLane="best" departSpeed="max" departPos="base"/>
    <vehicle id="veh_1" type="car" route="route_20_E5_to_E18" depart="2.09" departLane="best" departSpeed="max" departPos="base"/>
    <vehicle id="veh_2" type="car" route="route_07_E10_to_E5" depart="2.73" departLane="best" departSpeed="max" departPos="base"/>
    <vehicle id="veh_3" type="car" route="route_12_E14_to_E19" depart="3.24" departLane="best" departSpeed="max" departPos="base"/>
    <vehicle id="veh_4" type="car" route="route_07_E10_to_E5" depart="5.91" departLane="best" departSpeed="max" departPos="base"/>
    <vehicle id="veh_5" type="car" route="route_07_E10_to_E5" depart="8.16" departLane="best" departSpeed="max" departPos="base"/>
    <vehicle id="veh_6" type="car" route="route_01_E9_to_E5_original" depart="12.62" departLane="best" departSpeed="max" departPos="base"/>
    <vehicle id="veh_7" type="car" route="route_01_E9_to_E5_original" depart="12.80" departLane="best" departSpeed="max" departPos="base"/>
    <vehicle id="veh_8" type="car" route="route_07_E10_to_E5" depart="13.90" departLane="best" departSpeed="max" departPos="base"/>
    <vehicle id="veh_9" type="car" route="route_01_E9_to_E5_original" depart="13.96" departLane="best" departSpeed="max" departPos="base"/>
    <vehicle id="veh_10" type="car" route="route_05_E9_to_E18" depart="14.45" departLane="best" departSpeed="max" departPos="base"/>
    <vehicle id="veh_11" type="car" route="route_09_E10_to_E4" depart="15.86" departLane="best" departSpeed="max" departPos="base"/>
    <vehicle id="veh_12" type="car" route="route_07_E10_to_E5" depart="15.91" departLane="best" departSpeed="max" departPos="base"/>
    <vehicle id="veh_13" type="car" route="route_01_E9_to_E5_original" depart="16.36" departLane="best" departSpeed="max" departPos="base"/>
    <vehicle id="veh_14" type="car" route="route_07_E10_to_E5" depart="18.46" departLane="best" departSpeed="max" departPos="base"/>
    <vehicle id="veh_15" type="car" route="route_01_E9_to_E5_original" depart="20.03" departLane="best" departSpeed="max" departPos="base"/>
    <vehicle id="veh_16" type="car" route="route_07_E10_to_E5" depart="20.53" departLane="best" departSpeed="max" departPos="base"/>
    <vehicle id="veh_17" type="car" route="route_01_E9_to_E5_original" depart="22.31" departLane="best" departSpeed="max" departPos="base"/>
    <vehicle id="veh_18" type="car" route="route_07_E10_to_E5" depart="25.62" departLane="best" departSpeed="max" departPos="base"/>
    <vehicle id="veh_19" type="car" route="route_07_E10_to_E5" depart="25.64" departLane="best" departSpeed="max" departPos="base"/>
    <vehicle id="veh_20" type="car" route="route_01_E9_to_E5_original" depart="28.91" departLane="best" departSpeed="max" departPos="base"/>
    <vehicle id="veh_21" type="car" route="route_08_E10_to_E17" depart="31.31" departLane="best" departSpeed="max" departPos="base"/>
    <vehicle id="veh_22" type="car" route="route_01_E9_to_E5_original" depart="32.14" departLane="best" departSpeed="max" departPos="base"/>
    <vehicle id="veh_23" type="car" route="route_07_E10_to_E5" depart="32.48" departLane="best" departSpeed="max" departPos="base"/>
    <vehicle id="veh_24" type="car" route="route_01_E9_to_E5_original" depart="38.78" departLane="best" departSpeed="max" departPos="base"/>
    <vehicle id="veh_25" type="car" route="route_06_E10_to_E19" depart="39.60" departLane="best" departSpeed="max" departPos="base"/>
    <vehicle id="veh_26" type="car" route="route_01_E9_to_E5_original" depart="39.80" departLane="best" departSpeed="max" departPos="base"/>
    <vehicle id="veh_27" type="car" route="route_04_E9_to_E14" depart="40.00" departLane="best" departSpeed="max" departPos="base"/>
    <vehicle id="veh_28" type="car" route="route_12_E14_to_E19" depart="43.76" departLane="best" departSpeed="max" departPos="base"/>
    <vehicle id="veh_29" type="car" route="route_06_E10_to_E19" depart="45.61" departLane="best" departSpeed="max" departPos="base"/>
    <vehicle id="veh_30" type="car" route="route_12_E14_to_E19" depart="48.91" departLane="best" departSpeed="max" departPos="base"/>
    <vehicle id="veh_31" type="car" route="route_15_E2_to_E4" depart="51.52" departLane="best" departSpeed="max" departPos="base"/>
    <vehicle id="veh_32" type="car" route="route_02_E9_to_E5_short" depart="53.06" departLane="best" departSpeed="max" departPos="base"/>
    <vehicle id="veh_33" type="car" route="route_01_E9_to_E5_original" depart="60.29" departLane="best" departSpeed="max" departPos="base"/>
    <vehicle id="veh_34" type="car" route="route_01_E9_to_E5_original" depart="61.24" departLane="best" departSpeed="max" departPos="base"/>
    <vehicle id="veh_35" type="car" route="route_07_E10_to_E5" depart="62.85" departLane="best" departSpeed="max" departPos="base"/>
    <vehicle id="veh_36" type="car" route="route_21_E5_to_E19" depart="66.39" departLane="best" departSpeed="max" departPos="base"/>
    <vehicle id="veh_37" type="car" route="route_05_E9_to_E18" depart="68.31" departLane="best" departSpeed="max" departPos="base"/>
    <vehicle id="veh_38" type="car" route="route_08_E10_to_E17" depart="72.27" departLane="best" departSpeed="max" departPos="base"/>
    <vehicle id="veh_39" type="car" route="route_13_E14_to_E4" depart="73.99" departLane="best" departSpeed="max" departPos="base"/>
    <vehicle id="veh_40" type="car" route="route_08_E10_to_E17" depart="76.43" departLane="best" departSpeed="max" departPos="base"/>
    <vehicle id="veh_41" type="car" route="route_12_E14_to_E19" depart="76.52" departLane="best" departSpeed="max" departPos="base"/>
    <vehicle id="veh_42" type="car" route="route_20_E5_to_E18" depart="77.04" departLane="best" departSpeed="max" departPos="base"/>
    <vehicle id="veh_43" type="car" route="route_01_E9_to_E5_original" depart="77.72" departLane="best" departSpeed="max" departPos="base"/>
    <vehicle id="veh_44" type="car" route="route_01_E9_to_E5_original" depart="77.89" departLane="best" departSpeed="max" departPos="base"/>
    <vehicle id="veh_45" type="car" route="route_01_E9_to_E5_original" depart="78.42" departLane="best" departSpeed="max" departPos="base"/>
    <vehicle id="veh_46" type="car" route="route_01_E9_to_E5_original" depart="78.63" departLane="best" departSpeed="max" departPos="base"/>
    <vehicle id="veh_47" type="car" route="route_09_E10_to_E4" depart="79.29" departLane="best" departSpeed="max" departPos="base"/>
    <vehicle id="veh_48" type="car" route="route_07_E10_to_E5" depart="81.31" departLane="best" departSpeed="max" departPos="base"/>
    <vehicle id="veh_49" type="car" route="route_01_E9_to_E5_original" depart="82.21" departLane="best" departSpeed="max" departPos="base"/>
    <vehicle id="veh_50" type="car" route="route_10_E14_to_E9" depart="83.14" departLane="best" departSpeed="max" departPos="base"/>
    <vehicle id="veh_51" type="car" route="route_13_E14_to_E4" depart="83.61" departLane="best" departSpeed="max" departPos="base"/>
    <vehicle id="veh_52" type="car" route="route_01_E9_to_E5_original" depart="84.23" departLane="best" departSpeed="max" departPos="base"/>
    <vehicle id="veh_53" type="car" route="route_07_E10_to_E5" depart="89.75" departLane="best" departSpeed="max" departPos="base"/>
    <vehicle id="veh_54" type="car" route="route_12_E14_to_E19" depart="91.84" departLane="best" departSpeed="max" departPos="base"/>
    <vehicle id="veh_55" type="car" route="route_01_E9_to_E5_original" depart="93.71" departLane="best" departSpeed="max" departPos="base"/>
    <vehicle id="veh_56" type="car" route="route_15_E2_to_E4" depart="94.09" departLane="best" departSpeed="max" departPos="base"/>
    <vehicle id="veh_57" type="car" route="route_20_E5_to_E18" depart="96.70" departLane="best" departSpeed="max" departPos="base"/>
    <vehicle id="veh_58" type="car" route="route_01_E9_to_E5_original" depart="97.06" departLane="best" departSpeed="max" departPos="base"/>
    <vehicle id="veh_59" type="car" route="route_01_E9_to_E5_original" depart="98.01" departLane="best" departSpeed="max" departPos="base"/>
    <vehicle id="veh_60" type="car" route="route_04_E9_to_E14" depart="107.13" departLane="best" departSpeed="max" departPos="base"/>
    <vehicle id="veh_61" type="car" route="route_09_E10_to_E4" depart="109.17" departLane="best" departSpeed="max" departPos="base"/>
    <vehicle id="veh_62" type="car" route="route_20_E5_to_E18" depart="110.80" departLane="best" departSpeed="max" departPos="base"/>
    <vehicle id="veh_63" type="car" route="route_07_E10_to_E5" depart="113.11" departLane="best" departSpeed="max" departPos="base"/>
    <vehicle id="veh_64" type="car" route="route_11_E14_to_E5" depart="116.81" departLane="best" departSpeed="max" departPos="base"/>
    <vehicle id="veh_65" type="car" route="route_01_E9_to_E5_original" depart="119.80" departLane="best" departSpeed="max" departPos="base"/>
    <vehicle id="veh_66" type="car" route="route_10_E14_to_E9" depart="120.32" departLane="best" departSpeed="max" departPos="base"/>
    <vehicle id="veh_67" type="car" route="route_07_E10_to_E5" depart="120.39" departLane="best" departSpeed="max" departPos="base"/>
    <vehicle id="veh_68" type="car" route="route_01_E9_to_E5_original" depart="121.15" departLane="best" departSpeed="max" departPos="base"/>
    <vehicle id="veh_69" type="car" route="route_13_E14_to_E4" depart="121.77" departLane="best" departSpeed="max" departPos="base"/>
    <vehicle id="veh_70" type="car" route="route_16_E2_to_E17" depart="122.24" departLane="best" departSpeed="max" departPos="base"/>
    <vehicle id="veh_71" type="car" route="route_07_E10_to_E5" depart="127.97" departLane="best" departSpeed="max" departPos="base"/>
    <vehicle id="veh_72" type="car" route="route_01_E9_to_E5_original" depart="132.15" departLane="best" departSpeed="max" departPos="base"/>
    <vehicle id="veh_73" type="car" route="route_21_E5_to_E19" depart="132.91" departLane="best" departSpeed="max" departPos="base"/>
    <vehicle id="veh_74" type="car" route="route_13_E14_to_E4" depart="135.04" departLane="best" departSpeed="max" departPos="base"/>
    <vehicle id="veh_75" type="car" route="route_05_E9_to_E18" depart="136.04" departLane="best" departSpeed="max" departPos="base"/>
    <vehicle id="veh_76" type="car" route="route_07_E10_to_E5" depart="140.96" departLane="best" departSpeed="max" departPos="base"/>
    <vehicle id="veh_77" type="car" route="route_06_E10_to_E19" depart="142.19" departLane="best" departSpeed="max" departPos="base"/>
    <vehicle id="veh_78" type="car" route="route_07_E10_to_E5" depart="142.81" departLane="best" departSpeed="max" departPos="base"/>
    <vehicle id="veh_79" type="car" route="route_05_E9_to_E18" depart="143.37" departLane="best" departSpeed="max" departPos="base"/>
    <vehicle id="veh_80" type="car" route="route_16_E2_to_E17" depart="145.02" departLane="best" departSpeed="max" departPos="base"/>
    <vehicle id="veh_81" type="car" route="route_15_E2_to_E4" depart="145.63" departLane="best" departSpeed="max" departPos="base"/>
    <vehicle id="veh_82" type="car" route="route_01_E9_to_E5_original" depart="147.39" departLane="best" departSpeed="max" departPos="base"/>
    <vehicle id="veh_83" type="car" route="route_20_E5_to_E18" depart="151.95" departLane="best" departSpeed="max" departPos="base"/>
    <vehicle id="veh_84" type="car" route="route_08_E10_to_E17" depart="152.97" departLane="best" departSpeed="max" departPos="base"/>
    <vehicle id="veh_85" type="car" route="route_15_E2_to_E4" depart="153.47" departLane="best" departSpeed="max" departPos="base"/>
    <vehicle id="veh_86" type="car" route="route_10_E14_to_E9" depart="165.48" departLane="best" departSpeed="max" departPos="base"/>
    <vehicle id="veh_87" type="car" route="route_07_E10_to_E5" depart="166.90" departLane="best" departSpeed="max" departPos="base"/>
    <vehicle id="veh_88" type="car" route="route_11_E14_to_E5" depart="167.09" departLane="best" departSpeed="max" departPos="base"/>
    <vehicle id="veh_89" type="car" route="route_20_E5_to_E18" depart="167.19" departLane="best" departSpeed="max" departPos="base"/>
    <vehicle id="veh_90" type="car" route="route_02_E9_to_E5_short" depart="167.42" departLane="best" departSpeed="max" departPos="base"/>
    <vehicle id="veh_91" type="car" route="route_14_E2_to_E14" depart="169.40" departLane="best" departSpeed="max" departPos="base"/>
    <vehicle id="veh_92" type="car" route="route_07_E10_to_E5" depart="172.54" departLane="best" departSpeed="max" departPos="base"/>
    <vehicle id="veh_93" type="car" route="route_07_E10_to_E5" depart="173.64" departLane="best" departSpeed="max" departPos="base"/>
    <vehicle id="veh_94" type="car" route="route_07_E10_to_E5" depart="173.77" departLane="best" departSpeed="max" departPos="base"/>
    <vehicle id="veh_95" type="car" route="route_11_E14_to_E5" depart="174.73" departLane="best" departSpeed="max" departPos="base"/>
    <vehicle id="veh_96" type="car" route="route_02_E9_to_E5_short" depart="185.83" departLane="best" departSpeed="max" departPos="base"/>
    <vehicle id="veh_97" type="car" route="route_16_E2_to_E17" depart="187.34" departLane="best" departSpeed="max" departPos="base"/>
    <vehicle id="veh_98" type="car" route="route_15_E2_to_E4" depart="194.43" departLane="best" departSpeed="max" departPos="base"/>
    <vehicle id="veh_99" type="car" route="route_01_E9_to_E5_original" depart="198.37" departLane="best" departSpeed="max" departPos="base"/>
    <vehicle id="veh_100" type="car" route="route_17_E2_to_E19" depart="198.39" departLane="best" departSpeed="max" departPos="base"/>
    <vehicle id="veh_101" type="car" route="route_01_E9_to_E5_original" depart="200.94" departLane="best" departSpeed="max" departPos="base"/>
    <vehicle id="veh_102" type="car" route="route_07_E10_to_E5" depart="203.23" departLane="best" departSpeed="max" departPos="base"/>
    <vehicle id="veh_103" type="car" route="route_07_E10_to_E5" depart="204.77" departLane="best" departSpeed="max" departPos="base"/>
    <vehicle id="veh_104" type="car" route="route_06_E10_to_E19" depart="205.39" departLane="best" departSpeed="max" departPos="base"/>
    <vehicle id="veh_105" type="car" route="route_01_E9_to_E5_original" depart="207.44" departLane="best" departSpeed="max" departPos="base"/>
    <vehicle id="veh_106" type="car" route="route_16_E2_to_E17" depart="207.68" departLane="best" departSpeed="max" departPos="base"/>
    <vehicle id="veh_107" type="car" route="route_01_E9_to_E5_original" depart="208.82" departLane="best" departSpeed="max" departPos="base"/>
    <vehicle id="veh_108" type="car" route="route_01_E9_to_E5_original" depart="210.03" departLane="best" departSpeed="max" departPos="base"/>
    <vehicle id="veh_109" type="car" route="route_14_E2_to_E14" depart="216.18" departLane="best" departSpeed="max" departPos="base"/>
    <vehicle id="veh_110" type="car" route="route_05_E9_to_E18" depart="220.35" departLane="best" departSpeed="max" departPos="base"/>
    <vehicle id="veh_111" type="car" route="route_17_E2_to_E19" depart="220.96" departLane="best" departSpeed="max" departPos="base"/>
    <vehicle id="veh_112" type="car" route="route_10_E14_to_E9" depart="222.35" departLane="best" departSpeed="max" departPos="base"/>
    <vehicle id="veh_113" type="car" route="route_02_E9_to_E5_short" depart="222.75" departLane="best" departSpeed="max" departPos="base"/>
    <vehicle id="veh_114" type="car" route="route_01_E9_to_E5_original" depart="227.62" departLane="best" departSpeed="max" departPos="base"/>
    <vehicle id="veh_115" type="car" route="route_20_E5_to_E18" depart="231.71" departLane="best" departSpeed="max" departPos="base"/>
    <vehicle id="veh_116" type="car" route="route_01_E9_to_E5_original" depart="232.42" departLane="best" departSpeed="max" departPos="base"/>
    <vehicle id="veh_117" type="car" route="route_11_E14_to_E5" depart="234.46" departLane="best" departSpeed="max" departPos="base"/>
    <vehicle id="veh_118" type="car" route="route_07_E10_to_E5" depart="236.33" departLane="best" departSpeed="max" departPos="base"/>
    <vehicle id="veh_119" type="car" route="route_12_E14_to_E19" depart="236.67" departLane="best" departSpeed="max" departPos="base"/>
    <vehicle id="veh_120" type="car" route="route_10_E14_to_E9" depart="239.54" departLane="best" departSpeed="max" departPos="base"/>
    <vehicle id="veh_121" type="car" route="route_08_E10_to_E17" depart="241.09" departLane="best" departSpeed="max" departPos="base"/>
    <vehicle id="veh_122" type="car" route="route_07_E10_to_E5" depart="244.11" departLane="best" departSpeed="max" departPos="base"/>
    <vehicle id="veh_123" type="car" route="route_14_E2_to_E14" depart="245.62" departLane="best" departSpeed="max" departPos="base"/>
    <vehicle id="veh_124" type="car" route="route_01_E9_to_E5_original" depart="245.62" departLane="best" departSpeed="max" departPos="base"/>
    <vehicle id="veh_125" type="car" route="route_01_E9_to_E5_original" depart="246.40" departLane="best" departSpeed="max" departPos="base"/>
    <vehicle id="veh_126" type="car" route="route_10_E14_to_E9" depart="246.44" departLane="best" departSpeed="max" departPos="base"/>
    <vehicle id="veh_127" type="car" route="route_04_E9_to_E14" depart="251.74" departLane="best" departSpeed="max" departPos="base"/>
    <vehicle id="veh_128" type="car" route="route_07_E10_to_E5" depart="255.95" departLane="best" departSpeed="max" departPos="base"/>
    <vehicle id="veh_129" type="car" route="route_07_E10_to_E5" depart="259.52" departLane="best" departSpeed="max" departPos="base"/>
    <vehicle id="veh_130" type="car" route="route_07_E10_to_E5" depart="260.25" departLane="best" departSpeed="max" departPos="base"/>
    <vehicle id="veh_131" type="car" route="route_07_E10_to_E5" depart="260.37" departLane="best" departSpeed="max" departPos="base"/>
    <vehicle id="veh_132" type="car" route="route_12_E14_to_E19" depart="264.58" departLane="best" departSpeed="max" departPos="base"/>
    <vehicle id="veh_133" type="car" route="route_05_E9_to_E18" depart="270.45" departLane="best" departSpeed="max" departPos="base"/>
    <vehicle id="veh_134" type="car" route="route_10_E14_to_E9" depart="270.63" departLane="best" departSpeed="max" departPos="base"/>
    <vehicle id="veh_135" type="car" route="route_02_E9_to_E5_short" depart="271.96" departLane="best" departSpeed="max" departPos="base"/>
    <vehicle id="veh_136" type="car" route="route_02_E9_to_E5_short" depart="272.11" departLane="best" departSpeed="max" departPos="base"/>
    <vehicle id="veh_137" type="car" route="route_01_E9_to_E5_original" depart="274.97" departLane="best" departSpeed="max" departPos="base"/>
    <vehicle id="veh_138" type="car" route="route_01_E9_to_E5_original" depart="277.87" departLane="best" departSpeed="max" departPos="base"/>
    <vehicle id="veh_139" type="car" route="route_01_E9_to_E5_original" depart="278.14" departLane="best" departSpeed="max" departPos="base"/>
    <vehicle id="veh_140" type="car" route="route_07_E10_to_E5" depart="279.43" departLane="best" departSpeed="max" departPos="base"/>
    <vehicle id="veh_141" type="car" route="route_12_E14_to_E19" depart="281.03" departLane="best" departSpeed="max" departPos="base"/>
    <vehicle id="veh_142" type="car" route="route_01_E9_to_E5_original" depart="281.65" departLane="best" departSpeed="max" departPos="base"/>
    <vehicle id="veh_143" type="car" route="route_01_E9_to_E5_original" depart="285.76" departLane="best" departSpeed="max" departPos="base"/>
    <vehicle id="veh_144" type="car" route="route_07_E10_to_E5" depart="286.86" departLane="best" departSpeed="max" departPos="base"/>
    <vehicle id="veh_145" type="car" route="route_11_E14_to_E5" depart="287.34" departLane="best" departSpeed="max" departPos="base"/>
    <vehicle id="veh_146" type="car" route="route_21_E5_to_E19" depart="288.89" departLane="best" departSpeed="max" departPos="base"/>
    <vehicle id="veh_147" type="car" route="route_07_E10_to_E5" depart="291.51" departLane="best" departSpeed="max" departPos="base"/>
    <vehicle id="veh_148" type="car" route="route_03_E9_to_E4" depart="291.96" departLane="best" departSpeed="max" departPos="base"/>
    <vehicle id="veh_149" type="car" route="route_01_E9_to_E5_original" depart="292.71" departLane="best" departSpeed="max" departPos="base"/>
    <vehicle id="veh_150" type="car" route="route_01_E9_to_E5_original" depart="303.36" departLane="best" departSpeed="max" departPos="base"/>
    <vehicle id="veh_151" type="car" route="route_01_E9_to_E5_original" depart="305.46" departLane="best" departSpeed="max" departPos="base"/>
    <vehicle id="veh_152" type="car" route="route_01_E9_to_E5_original" depart="306.61" departLane="best" departSpeed="max" departPos="base"/>
    <vehicle id="veh_153" type="car" route="route_01_E9_to_E5_original" depart="308.07" departLane="best" departSpeed="max" departPos="base"/>
    <vehicle id="veh_154" type="car" route="route_07_E10_to_E5" depart="308.33" departLane="best" departSpeed="max" departPos="base"/>
    <vehicle id="veh_155" type="car" route="route_02_E9_to_E5_short" depart="308.84" departLane="best" departSpeed="max" departPos="base"/>
    <vehicle id="veh_156" type="car" route="route_21_E5_to_E19" depart="309.66" departLane="best" departSpeed="max" departPos="base"/>
    <vehicle id="veh_157" type="car" route="route_07_E10_to_E5" depart="311.44" departLane="best" departSpeed="max" departPos="base"/>
    <vehicle id="veh_158" type="car" route="route_10_E14_to_E9" depart="311.96" departLane="best" departSpeed="max" departPos="base"/>
    <vehicle id="veh_159" type="car" route="route_01_E9_to_E5_original" depart="312.46" departLane="best" departSpeed="max" departPos="base"/>
    <vehicle id="veh_160" type="car" route="route_17_E2_to_E19" depart="312.61" departLane="best" departSpeed="max" departPos="base"/>
    <vehicle id="veh_161" type="car" route="route_07_E10_to_E5" depart="314.60" departLane="best" departSpeed="max" departPos="base"/>
    <vehicle id="veh_162" type="car" route="route_17_E2_to_E19" depart="315.12" departLane="best" departSpeed="max" departPos="base"/>
    <vehicle id="veh_163" type="car" route="route_07_E10_to_E5" depart="319.84" departLane="best" departSpeed="max" departPos="base"/>
    <vehicle id="veh_164" type="car" route="route_07_E10_to_E5" depart="323.77" departLane="best" departSpeed="max" departPos="base"/>
    <vehicle id="veh_165" type="car" route="route_07_E10_to_E5" depart="323.91" departLane="best" departSpeed="max" departPos="base"/>
    <vehicle id="veh_166" type="car" route="route_01_E9_to_E5_original" depart="324.46" departLane="best" departSpeed="max" departPos="base"/>
    <vehicle id="veh_167" type="car" route="route_01_E9_to_E5_original" depart="326.67" departLane="best" departSpeed="max" departPos="base"/>
    <vehicle id="veh_168" type="car" route="route_19_E5_to_E3" depart="327.15" departLane="best" departSpeed="max" departPos="base"/>
    <vehicle id="veh_169" type="car" route="route_07_E10_to_E5" depart="327.43" departLane="best" departSpeed="max" departPos="base"/>
    <vehicle id="veh_170" type="car" route="route_15_E2_to_E4" depart="332.92" departLane="best" departSpeed="max" departPos="base"/>
    <vehicle id="veh_171" type="car" route="route_07_E10_to_E5" depart="334.61" departLane="best" departSpeed="max" departPos="base"/>
    <vehicle id="veh_172" type="car" route="route_01_E9_to_E5_original" depart="335.89" departLane="best" departSpeed="max" departPos="base"/>
    <vehicle id="veh_173" type="car" route="route_07_E10_to_E5" depart="338.96" departLane="best" departSpeed="max" departPos="base"/>
    <vehicle id="veh_174" type="car" route="route_01_E9_to_E5_original" depart="342.25" departLane="best" departSpeed="max" departPos="base"/>
    <vehicle id="veh_175" type="car" route="route_01_E9_to_E5_original" depart="342.68" departLane="best" departSpeed="max" departPos="base"/>
    <vehicle id="veh_176" type="car" route="route_07_E10_to_E5" depart="342.88" departLane="best" departSpeed="max" departPos="base"/>
    <vehicle id="veh_177" type="car" route="route_04_E9_to_E14" depart="344.01" departLane="best" departSpeed="max" departPos="base"/>
    <vehicle id="veh_178" type="car" route="route_21_E5_to_E19" depart="345.11" departLane="best" departSpeed="max" departPos="base"/>
    <vehicle id="veh_179" type="car" route="route_01_E9_to_E5_original" depart="346.37" departLane="best" departSpeed="max" departPos="base"/>
    <vehicle id="veh_180" type="car" route="route_13_E14_to_E4" depart="348.98" departLane="best" departSpeed="max" departPos="base"/>
    <vehicle id="veh_181" type="car" route="route_07_E10_to_E5" depart="351.22" departLane="best" departSpeed="max" departPos="base"/>
    <vehicle id="veh_182" type="car" route="route_14_E2_to_E14" depart="359.51" departLane="best" departSpeed="max" departPos="base"/>
    <vehicle id="veh_183" type="car" route="route_01_E9_to_E5_original" depart="359.72" departLane="best" departSpeed="max" departPos="base"/>
    <vehicle id="veh_184" type="car" route="route_07_E10_to_E5" depart="360.75" departLane="best" departSpeed="max" departPos="base"/>
    <vehicle id="veh_185" type="car" route="route_07_E10_to_E5" depart="361.58" departLane="best" departSpeed="max" departPos="base"/>
    <vehicle id="veh_186" type="car" route="route_07_E10_to_E5" depart="365.53" departLane="best" departSpeed="max" departPos="base"/>
    <vehicle id="veh_187" type="car" route="route_16_E2_to_E17" depart="366.10" departLane="best" departSpeed="max" departPos="base"/>
    <vehicle id="veh_188" type="car" route="route_21_E5_to_E19" depart="366.53" departLane="best" departSpeed="max" departPos="base"/>
    <vehicle id="veh_189" type="car" route="route_04_E9_to_E14" depart="367.72" departLane="best" departSpeed="max" departPos="base"/>
    <vehicle id="veh_190" type="car" route="route_07_E10_to_E5" depart="368.81" departLane="best" departSpeed="max" departPos="base"/>
    <vehicle id="veh_191" type="car" route="route_07_E10_to_E5" depart="369.47" departLane="best" departSpeed="max" departPos="base"/>
    <vehicle id="veh_192" type="car" route="route_12_E14_to_E19" depart="370.04" departLane="best" departSpeed="max" departPos="base"/>
    <vehicle id="veh_193" type="car" route="route_20_E5_to_E18" depart="375.18" departLane="best" departSpeed="max" departPos="base"/>
    <vehicle id="veh_194" type="car" route="route_01_E9_to_E5_original" depart="376.35" departLane="best" departSpeed="max" departPos="base"/>
    <vehicle id="veh_195" type="car" route="route_01_E9_to_E5_original" depart="380.30" departLane="best" departSpeed="max" departPos="base"/>
    <vehicle id="veh_196" type="car" route="route_09_E10_to_E4" depart="381.90" departLane="best" departSpeed="max" departPos="base"/>
    <vehicle id="veh_197" type="car" route="route_01_E9_to_E5_original" depart="382.00" departLane="best" departSpeed="max" departPos="base"/>
    <vehicle id="veh_198" type="car" route="route_01_E9_to_E5_original" depart="396.48" departLane="best" departSpeed="max" departPos="base"/>
    <vehicle id="veh_199" type="car" route="route_01_E9_to_E5_original" depart="400.10" departLane="best" departSpeed="max" departPos="base"/>
    <vehicle id="veh_200" type="car" route="route_01_E9_to_E5_original" depart="407.04" departLane="best" departSpeed="max" departPos="base"/>
    <vehicle id="veh_201" type="car" route="route_07_E10_to_E5" depart="412.26" departLane="best" departSpeed="max" departPos="base"/>
    <vehicle id="veh_202" type="car" route="route_07_E10_to_E5" depart="416.04" departLane="best" departSpeed="max" departPos="base"/>
    <vehicle id="veh_203" type="car" route="route_03_E9_to_E4" depart="416.40" departLane="best" departSpeed="max" departPos="base"/>
    <vehicle id="veh_204" type="car" route="route_01_E9_to_E5_original" depart="417.73" departLane="best" departSpeed="max" departPos="base"/>
    <vehicle id="veh_205" type="car" route="route_10_E14_to_E9" depart="418.21" departLane="best" departSpeed="max" departPos="base"/>
    <vehicle id="veh_206" type="car" route="route_10_E14_to_E9" depart="419.24" departLane="best" departSpeed="max" departPos="base"/>
    <vehicle id="veh_207" type="car" route="route_07_E10_to_E5" depart="419.36" departLane="best" departSpeed="max" departPos="base"/>
    <vehicle id="veh_208" type="car" route="route_10_E14_to_E9" depart="420.31" departLane="best" departSpeed="max" departPos="base"/>