<?xml version="1.0" ?>
<routes>
    <vType id="car" accel="2.6" decel="4.5" sigma="0.5" length="5.0" minGap="2.5" maxSpeed="13.89" guiShape="passenger"/>
    <route id="fixed_route_e9" edges="E9 -E12 E20 E15 -E0 E5"/>
    <route id="fixed_route_e10" edges="E10 -E12 E20 E15 -E0 E5"/>
    <vehicle id="veh_0" type="car" route="fixed_route_e9" depart="0.00" departLane="best" departSpeed="max" departPos="base"/>
    <vehicle id="veh_1" type="car" route="fixed_route_e10" depart="0.00" departLane="best" departSpeed="max" departPos="base"/>
    <vehicle id="veh_2" type="car" route="fixed_route_e9" depart="6.00" departLane="best" departSpeed="max" departPos="base"/>
    <vehicle id="veh_3" type="car" route="fixed_route_e10" depart="6.00" departLane="best" departSpeed="max" departPos="base"/>
    <vehicle id="veh_4" type="car" route="fixed_route_e9" depart="12.00" departLane="best" departSpeed="max" departPos="base"/>
    <vehicle id="veh_5" type="car" route="fixed_route_e10" depart="12.00" departLane="best" departSpeed="max" departPos="base"/>
    <vehicle id="veh_6" type="car" route="fixed_route_e9" depart="18.00" departLane="best" departSpeed="max" departPos="base"/>
    <vehicle id="veh_7" type="car" route="fixed_route_e10" depart="18.00" departLane="best" departSpeed="max" departPos="base"/>
    <vehicle id="veh_8" type="car" route="fixed_route_e9" depart="24.00" departLane="best" departSpeed="max" departPos="base"/>
    <vehicle id="veh_9" type="car" route="fixed_route_e10" depart="24.00" departLane="best" departSpeed="max" departPos="base"/>
    <vehicle id="veh_10" type="car" route="fixed_route_e9" depart="30.00" departLane="best" departSpeed="max" departPos="base"/>
    <vehicle id="veh_11" type="car" route="fixed_route_e10" depart="30.00" departLane="best" departSpeed="max" departPos="base"/>
    <vehicle id="veh_12" type="car" route="fixed_route_e9" depart="36.00" departLane="best" departSpeed="max" departPos="base"/>
    <vehicle id="veh_13" type="car" route="fixed_route_e10" depart="36.00" departLane="best" departSpeed="max" departPos="base"/>
    <vehicle id="veh_14" type="car" route="fixed_route_e9" depart="42.00" departLane="best" departSpeed="max" departPos="base"/>
    <vehicle id="veh_15" type="car" route="fixed_route_e10" depart="42.00" departLane="best" departSpeed="max" departPos="base"/>
    <vehicle id="veh_16" type="car" route="fixed_route_e9" depart="48.00" departLane="best" departSpeed="max" departPos="base"/>
    <vehicle id="veh_17" type="car" route="fixed_route_e10" depart="48.00" departLane="best" departSpeed="max" departPos="base"/>
    <vehicle id="veh_18" type="car" route="fixed_route_e9" depart="54.00" departLane="best" departSpeed="max" departPos="base"/>
    <vehicle id="veh_19" type="car" route="fixed_route_e10" depart="54.00" departLane="best" departSpeed="max" departPos="base"/>
    <vehicle id="veh_20" type="car" route="fixed_route_e9" depart="60.00" departLane="best" departSpeed="max" departPos="base"/>
    <vehicle id="veh_21" type="car" route="fixed_route_e10" depart="60.00" departLane="best" departSpeed="max" departPos="base"/>
    <vehicle id="veh_22" type="car" route="fixed_route_e9" depart="66.00" departLane="best" departSpeed="max" departPos="base"/>
    <vehicle id="veh_23" type="car" route="fixed_route_e10" depart="66.00" departLane="best" departSpeed="max" departPos="base"/>
    <vehicle id="veh_24" type="car" route="fixed_route_e9" depart="72.00" departLane="best" departSpeed="max" departPos="base"/>
    <vehicle id="veh_25" type="car" route="fixed_route_e10" depart="72.00" departLane="best" departSpeed="max" departPos="base"/>
    <vehicle id="veh_26" type="car" route="fixed_route_e9" depart="78.00" departLane="best" departSpeed="max" departPos="base"/>
    <vehicle id="veh_27" type="car" route="fixed_route_e10" depart="78.00" departLane="best" departSpeed="max" departPos="base"/>
    <vehicle id="veh_28" type="car" route="fixed_route_e9" depart="84.00" departLane="best" departSpeed="max" departPos="base"/>
    <vehicle id="veh_29" type="car" route="fixed_route_e10" depart="84.00" departLane="best" departSpeed="max" departPos="base"/>
    <vehicle id="veh_30" type="car" route="fixed_route_e9" depart="90.00" departLane="best" departSpeed="max" departPos="base"/>
    <vehicle id="veh_31" type="car" route="fixed_route_e10" depart="90.00" departLane="best" departSpeed="max" departPos="base"/>
    <vehicle id="veh_32" type="car" route="fixed_route_e9" depart="96.00" departLane="best" departSpeed="max" departPos="base"/>
    <vehicle id="veh_33" type="car" route="fixed_route_e10" depart="96.00" departLane="best" departSpeed="max" departPos="base"/>
    <vehicle id="veh_34" type="car" route="fixed_route_e9" depart="102.00" departLane="best" departSpeed="max" departPos="base"/>
    <vehicle id="veh_35" type="car" route="fixed_route_e10" depart="102.00" departLane="best" departSpeed="max" departPos="base"/>
    <vehicle id="veh_36" type="car" route="fixed_route_e9" depart="108.00" departLane="best" departSpeed="max" departPos="base"/>
    <vehicle id="veh_37" type="car" route="fixed_route_e10" depart="108.00" departLane="best" departSpeed="max" departPos="base"/>
    <vehicle id="veh_38" type="car" route="fixed_route_e9" depart="114.00" departLane="best" departSpeed="max" departPos="base"/>
    <vehicle id="veh_39" type="car" route="fixed_route_e10" depart="114.00" departLane="best" departSpeed="max" departPos="base"/>
    <vehicle id="veh_40" type="car" route="fixed_route_e9" depart="120.00" departLane="best" departSpeed="max" departPos="base"/>
    <vehicle id="veh_41" type="car" route="fixed_route_e10" depart="120.00" departLane="best" departSpeed="max" departPos="base"/>
    <vehicle id="veh_42" type="car" route="fixed_route_e9" depart="126.00" departLane="best" departSpeed="max" departPos="base"/>
    <vehicle id="veh_43" type="car" route="fixed_route_e10" depart="126.00" departLane="best" departSpeed="max" departPos="base"/>
    <vehicle id="veh_44" type="car" route="fixed_route_e9" depart="132.00" departLane="best" departSpeed="max" departPos="base"/>
    <vehicle id="veh_45" type="car" route="fixed_route_e10" depart="132.00" departLane="best" departSpeed="max" departPos="base"/>
    <vehicle id="veh_46" type="car" route="fixed_route_e9" depart="138.00" departLane="best" departSpeed="max" departPos="base"/>
    <vehicle id="veh_47" type="car" route="fixed_route_e10" depart="138.00" departLane="best" departSpeed="max" departPos="base"/>
    <vehicle id="veh_48" type="car" route="fixed_route_e9" depart="144.00" departLane="best" departSpeed="max" departPos="base"/>
    <vehicle id="veh_49" type="car" route="fixed_route_e10" depart="144.00" departLane="best" departSpeed="max" departPos="base"/>
    <vehicle id="veh_50" type="car" route="fixed_route_e9" depart="150.00" departLane="best" departSpeed="max" departPos="base"/>
    <vehicle id="veh_51" type="car" route="fixed_route_e10" depart="150.00" departLane="best" departSpeed="max" departPos="base"/>
    <vehicle id="veh_52" type="car" route="fixed_route_e9" depart="156.00" departLane="best" departSpeed="max" departPos="base"/>
    <vehicle id="veh_53" type="car" route="fixed_route_e10" depart="156.00" departLane="best" departSpeed="max" departPos="base"/>
    <vehicle id="veh_54" type="car" route="fixed_route_e9" depart="162.00" departLane="best" departSpeed="max" departPos="base"/>
    <vehicle id="veh_55" type="car" route="fixed_route_e10" depart="162.00" departLane="best" departSpeed="max" departPos="base"/>
    <vehicle id="veh_56" type="car" route="fixed_route_e9" depart="168.00" departLane="best" departSpeed="max" departPos="base"/>
    <vehicle id="veh_57" type="car" route="fixed_route_e10" depart="168.00" departLane="best" departSpeed="max" departPos="base"/>
    <vehicle id="veh_58" type="car" route="fixed_route_e9" depart="174.00" departLane="best" departSpeed="max" departPos="base"/>
    <vehicle id="veh_59" type="car" route="fixed_route_e10" depart="174.00" departLane="best" departSpeed="max" departPos="base"/>
    <vehicle id="veh_60" type="car" route="fixed_route_e9" depart="180.00" departLane="best" departSpeed="max" departPos="base"/>
    <vehicle id="veh_61" type="car" route="fixed_route_e10" depart="180.00" departLane="best" departSpeed="max" departPos="base"/>
    <vehicle id="veh_62" type="car" route="fixed_route_e9" depart="186.00" departLane="best" departSpeed="max" departPos="base"/>
    <vehicle id="veh_63" type="car" route="fixed_route_e10" depart="186.00" departLane="best" departSpeed="max" departPos="base"/>
    <vehicle id="veh_64" type="car" route="fixed_route_e9" depart="192.00" departLane="best" departSpeed="max" departPos="base"/>
    <vehicle id="veh_65" type="car" route="fixed_route_e10" depart="192.00" departLane="best" departSpeed="max" departPos="base"/>
    <vehicle id="veh_66" type="car" route="fixed_route_e9" depart="198.00" departLane="best" departSpeed="max" departPos="base"/>
    <vehicle id="veh_67" type="car" route="fixed_route_e10" depart="198.00" departLane="best" departSpeed="max" departPos="base"/>
    <vehicle id="veh_68" type="car" route="fixed_route_e9" depart="204.00" departLane="best" departSpeed="max" departPos="base"/>
    <vehicle id="veh_69" type="car" route="fixed_route_e10" depart="204.00" departLane="best" departSpeed="max" departPos="base"/>
    <vehicle id="veh_70" type="car" route="fixed_route_e9" depart="210.00" departLane="best" departSpeed="max" departPos="base"/>
    <vehicle id="veh_71" type="car" route="fixed_route_e10" depart="210.00" departLane="best" departSpeed="max" departPos="base"/>
    <vehicle id="veh_72" type="car" route="fixed_route_e9" depart="216.00" departLane="best" departSpeed="max" departPos="base"/>
    <vehicle id="veh_73" type="car" route="fixed_route_e10" depart="216.00" departLane="best" departSpeed="max" departPos="base"/>
    <vehicle id="veh_74" type="car" route="fixed_route_e9" depart="222.00" departLane="best" departSpeed="max" departPos="base"/>
    <vehicle id="veh_75" type="car" route="fixed_route_e10" depart="222.00" departLane="best" departSpeed="max" departPos="base"/>
    <vehicle id="veh_76" type="car" route="fixed_route_e9" depart="228.00" departLane="best" departSpeed="max" departPos="base"/>
    <vehicle id="veh_77" type="car" route="fixed_route_e10" depart="228.00" departLane="best" departSpeed="max" departPos="base"/>
    <vehicle id="veh_78" type="car" route="fixed_route_e9" depart="234.00" departLane="best" departSpeed="max" departPos="base"/>
    <vehicle id="veh_79" type="car" route="fixed_route_e10" depart="234.00" departLane="best" departSpeed="max" departPos="base"/>
    <vehicle id="veh_80" type="car" route="fixed_route_e9" depart="240.00" departLane="best" departSpeed="max" departPos="base"/>
    <vehicle id="veh_81" type="car" route="fixed_route_e10" depart="240.00" departLane="best" departSpeed="max" departPos="base"/>
    <vehicle id="veh_82" type="car" route="fixed_route_e9" depart="246.00" departLane="best" departSpeed="max" departPos="base"/>
    <vehicle id="veh_83" type="car" route="fixed_route_e10" depart="246.00" departLane="best" departSpeed="max" departPos="base"/>
    <vehicle id="veh_84" type="car" route="fixed_route_e9" depart="252.00" departLane="best" departSpeed="max" departPos="base"/>
    <vehicle id="veh_85" type="car" route="fixed_route_e10" depart="252.00" departLane="best" departSpeed="max" departPos="base"/>
    <vehicle id="veh_86" type="car" route="fixed_route_e9" depart="258.00" departLane="best" departSpeed="max" departPos="base"/>
    <vehicle id="veh_87" type="car" route="fixed_route_e10" depart="258.00" departLane="best" departSpeed="max" departPos="base"/>
    <vehicle id="veh_88" type="car" route="fixed_route_e9" depart="264.00" departLane="best" departSpeed="max" departPos="base"/>
    <vehicle id="veh_89" type="car" route="fixed_route_e10" depart="264.00" departLane="best" departSpeed="max" departPos="base"/>
    <vehicle id="veh_90" type="car" route="fixed_route_e9" depart="270.00" departLane="best" departSpeed="max" departPos="base"/>
    <vehicle id="veh_91" type="car" route="fixed_route_e10" depart="270.00" departLane="best" departSpeed="max" departPos="base"/>
    <vehicle id="veh_92" type="car" route="fixed_route_e9" depart="276.00" departLane="best" departSpeed="max" departPos="base"/>
    <vehicle id="veh_93" type="car" route="fixed_route_e10" depart="276.00" departLane="best" departSpeed="max" departPos="base"/>
    <vehicle id="veh_94" type="car" route="fixed_route_e9" depart="282.00" departLane="best" departSpeed="max" departPos="base"/>
    <vehicle id="veh_95" type="car" route="fixed_route_e10" depart="282.00" departLane="best" departSpeed="max" departPos="base"/>
    <vehicle id="veh_96" type="car" route="fixed_route_e9" depart="288.00" departLane="best" departSpeed="max" departPos="base"/>
    <vehicle id="veh_97" type="car" route="fixed_route_e10" depart="288.00" departLane="best" departSpeed="max" departPos="base"/>
    <vehicle id="veh_98" type="car" route="fixed_route_e9" depart="294.00" departLane="best" departSpeed="max" departPos="base"/>
    <vehicle id="veh_99" type="car" route="fixed_route_e10" depart="294.00" departLane="best" departSpeed="max" departPos="base"/>
    <vehicle id="veh_100" type="car" route="fixed_route_e9" depart="300.00" departLane="best" departSpeed="max" departPos="base"/>
    <vehicle id="veh_101" type="car" route="fixed_route_e10" depart="300.00" departLane="best" departSpeed="max" departPos="base"/>
</routes>
