<?xml version="1.0" ?>
<configuration>
    <input>
        <net-file value="test_random_offsets_seed20260708.net.xml"/>
        <route-files value="heavy_all_no_change.rou.xml"/>
    </input>
    <output>
        <tripinfo-output value="tripinfo_heavy_all_no_change_random_offset_seed20260708.xml"/>
    </output>
    <time>
        <begin value="0"/>
    </time>
</configuration>
