<?xml version="1.0" encoding="UTF-8"?>

<!-- generated on 2026-04-30T15:55:21.791846+08:00 by Eclipse SUMO netedit v1_26_0+1158-9885fdbdedb
<neteditConfiguration xmlns:xsi="http://www.w3.org/2001/XMLSchema-instance" xsi:noNamespaceSchemaLocation="http://sumo.dlr.de/xsd/neteditConfiguration.xsd">

    <input>
        <sumo-net-file value="/Users/xuzizhuo/Desktop/Main Folder/Works and Projects/Manuscripts/TKDE26_Traffic_Light_Control/SUMO 数据生成/2x2/test.net.xml"/>
    </input>

    <output>
        <output-file value="/Users/xuzizhuo/Desktop/Main Folder/Works and Projects/Manuscripts/TKDE26_Traffic_Light_Control/SUMO 数据生成/2x2/test.net.xml"/>
    </output>

    <processing>
        <geometry.min-radius.fix.railways value="false"/>
        <geometry.avoid-overlap value="false"/>
        <geometry.max-grade.fix value="false"/>
        <offset.disable-normalization value="true"/>
    </processing>

    <junctions>
        <no-turnarounds value="true"/>
    </junctions>

</neteditConfiguration>
-->

<net version="1.20" junctionCornerDetail="5" limitTurnSpeed="5.50" avoidOverlap="0" xmlns:xsi="http://www.w3.org/2001/XMLSchema-instance" xsi:noNamespaceSchemaLocation="http://sumo.dlr.de/xsd/net_file.xsd">

    <location netOffset="0.00,0.00" convBoundary="-350.00,-300.00,250.00,150.00" origBoundary="-10000000000.00,-10000000000.00,10000000000.00,10000000000.00" projParameter="!"/>

    <edge id=":J17_0" function="internal">
        <lane id=":J17_0_0" index="0" speed="6.51" length="9.03" shape="-208.00,13.60 -208.35,11.15 -209.40,9.40 -211.15,8.35 -213.60,8.00"/>
    </edge>
    <edge id=":J17_1" function="internal">
        <lane id=":J17_1_0" index="0" speed="13.89" length="27.20" shape="-204.80,13.60 -204.80,-13.60"/>
    </edge>
    <edge id=":J17_2" function="internal">
        <lane id=":J17_2_0" index="0" speed="10.36" length="24.51" shape="-201.60,13.60 -200.65,6.95 -197.80,2.20 -193.05,-0.65 -186.40,-1.60"/>
    </edge>
    <edge id=":J17_3" function="internal">
        <lane id=":J17_3_0" index="0" speed="6.51" length="9.03" shape="-186.40,8.00 -188.85,8.35 -190.60,9.40 -191.65,11.15 -192.00,13.60"/>
    </edge>
    <edge id=":J17_4" function="internal">
        <lane id=":J17_4_0" index="0" speed="13.89" length="27.20" shape="-186.40,4.80 -213.60,4.80"/>
    </edge>
    <edge id=":J17_5" function="internal">
        <lane id=":J17_5_0" index="0" speed="10.36" length="24.51" shape="-186.40,1.60 -193.05,0.65 -197.80,-2.20 -200.65,-6.95 -201.60,-13.60"/>
    </edge>
    <edge id=":J17_6" function="internal">
        <lane id=":J17_6_0" index="0" speed="6.51" length="9.03" shape="-192.00,-13.60 -191.65,-11.15 -190.60,-9.40 -188.85,-8.35 -186.40,-8.00"/>
    </edge>
    <edge id=":J17_7" function="internal">
        <lane id=":J17_7_0" index="0" speed="13.89" length="27.20" shape="-195.20,-13.60 -195.20,13.60"/>
    </edge>
    <edge id=":J17_8" function="internal">
        <lane id=":J17_8_0" index="0" speed="10.36" length="24.51" shape="-198.40,-13.60 -199.35,-6.95 -202.20,-2.20 -206.95,0.65 -213.60,1.60"/>
    </edge>
    <edge id=":J17_9" function="internal">
        <lane id=":J17_9_0" index="0" speed="6.51" length="9.03" shape="-213.60,-8.00 -211.15,-8.35 -209.40,-9.40 -208.35,-11.15 -208.00,-13.60"/>
    </edge>
    <edge id=":J17_10" function="internal">
        <lane id=":J17_10_0" index="0" speed="13.89" length="27.20" shape="-213.60,-4.80 -186.40,-4.80"/>
    </edge>
    <edge id=":J17_11" function="internal">
        <lane id=":J17_11_0" index="0" speed="10.36" length="24.51" shape="-213.60,-1.60 -206.95,-0.65 -202.20,2.20 -199.35,6.95 -198.40,13.60"/>
    </edge>
    <edge id=":J20_0" function="internal">
        <lane id=":J20_0_0" index="0" speed="6.51" length="9.03" shape="-208.00,-136.40 -208.35,-138.85 -209.40,-140.60 -211.15,-141.65 -213.60,-142.00"/>
    </edge>
    <edge id=":J20_1" function="internal">
        <lane id=":J20_1_0" index="0" speed="13.89" length="27.20" shape="-204.80,-136.40 -204.80,-163.60"/>
    </edge>
    <edge id=":J20_2" function="internal">
        <lane id=":J20_2_0" index="0" speed="10.36" length="12.07" shape="-201.60,-136.40 -200.65,-143.05 -197.90,-147.64"/>
    </edge>
    <edge id=":J20_12" function="internal">
        <lane id=":J20_12_0" index="0" speed="10.36" length="12.44" shape="-197.90,-147.64 -197.80,-147.80 -193.05,-150.65 -186.40,-151.60"/>
    </edge>
    <edge id=":J20_3" function="internal">
        <lane id=":J20_3_0" index="0" speed="6.51" length="9.03" shape="-186.40,-142.00 -188.85,-141.65 -190.60,-140.60 -191.65,-138.85 -192.00,-136.40"/>
    </edge>
    <edge id=":J20_4" function="internal">
        <lane id=":J20_4_0" index="0" speed="13.89" length="27.20" shape="-186.40,-145.20 -213.60,-145.20"/>
    </edge>
    <edge id=":J20_5" function="internal">
        <lane id=":J20_5_0" index="0" speed="10.36" length="12.07" shape="-186.40,-148.40 -193.05,-149.35 -197.64,-152.10"/>
    </edge>
    <edge id=":J20_13" function="internal">
        <lane id=":J20_13_0" index="0" speed="10.36" length="12.44" shape="-197.64,-152.10 -197.80,-152.20 -200.65,-156.95 -201.60,-163.60"/>
    </edge>
    <edge id=":J20_6" function="internal">
        <lane id=":J20_6_0" index="0" speed="6.51" length="9.03" shape="-192.00,-163.60 -191.65,-161.15 -190.60,-159.40 -188.85,-158.35 -186.40,-158.00"/>
    </edge>
    <edge id=":J20_7" function="internal">
        <lane id=":J20_7_0" index="0" speed="13.89" length="27.20" shape="-195.20,-163.60 -195.20,-136.40"/>
    </edge>
    <edge id=":J20_8" function="internal">
        <lane id=":J20_8_0" index="0" speed="10.36" length="12.07" shape="-198.40,-163.60 -199.35,-156.95 -202.10,-152.36"/>
    </edge>
    <edge id=":J20_14" function="internal">
        <lane id=":J20_14_0" index="0" speed="10.36" length="12.44" shape="-202.10,-152.36 -202.20,-152.20 -206.95,-149.35 -213.60,-148.40"/>
    </edge>
    <edge id=":J20_9" function="internal">
        <lane id=":J20_9_0" index="0" speed="6.51" length="9.03" shape="-213.60,-158.00 -211.15,-158.35 -209.40,-159.40 -208.35,-161.15 -208.00,-163.60"/>
    </edge>
    <edge id=":J20_10" function="internal">
        <lane id=":J20_10_0" index="0" speed="13.89" length="27.20" shape="-213.60,-154.80 -186.40,-154.80"/>
    </edge>
    <edge id=":J20_11" function="internal">
        <lane id=":J20_11_0" index="0" speed="10.36" length="12.07" shape="-213.60,-151.60 -206.95,-150.65 -202.36,-147.90"/>
    </edge>
    <edge id=":J20_15" function="internal">
        <lane id=":J20_15_0" index="0" speed="10.36" length="12.44" shape="-202.36,-147.90 -202.20,-147.80 -199.35,-143.05 -198.40,-136.40"/>
    </edge>
    <edge id=":J21_0" function="internal">
        <lane id=":J21_0_0" index="0" speed="6.51" length="9.03" shape="-58.00,13.60 -58.35,11.15 -59.40,9.40 -61.15,8.35 -63.60,8.00"/>
    </edge>
    <edge id=":J21_1" function="internal">
        <lane id=":J21_1_0" index="0" speed="13.89" length="27.20" shape="-54.80,13.60 -54.80,-13.60"/>
    </edge>
    <edge id=":J21_2" function="internal">
        <lane id=":J21_2_0" index="0" speed="10.36" length="12.07" shape="-51.60,13.60 -50.65,6.95 -47.90,2.36"/>
    </edge>
    <edge id=":J21_12" function="internal">
        <lane id=":J21_12_0" index="0" speed="10.36" length="12.44" shape="-47.90,2.36 -47.80,2.20 -43.05,-0.65 -36.40,-1.60"/>
    </edge>
    <edge id=":J21_3" function="internal">
        <lane id=":J21_3_0" index="0" speed="6.51" length="9.03" shape="-36.40,8.00 -38.85,8.35 -40.60,9.40 -41.65,11.15 -42.00,13.60"/>
    </edge>
    <edge id=":J21_4" function="internal">
        <lane id=":J21_4_0" index="0" speed="13.89" length="27.20" shape="-36.40,4.80 -63.60,4.80"/>
    </edge>
    <edge id=":J21_5" function="internal">
        <lane id=":J21_5_0" index="0" speed="10.36" length="12.07" shape="-36.40,1.60 -43.05,0.65 -47.64,-2.10"/>
    </edge>
    <edge id=":J21_13" function="internal">
        <lane id=":J21_13_0" index="0" speed="10.36" length="12.44" shape="-47.64,-2.10 -47.80,-2.20 -50.65,-6.95 -51.60,-13.60"/>
    </edge>
    <edge id=":J21_6" function="internal">
        <lane id=":J21_6_0" index="0" speed="6.51" length="9.03" shape="-42.00,-13.60 -41.65,-11.15 -40.60,-9.40 -38.85,-8.35 -36.40,-8.00"/>
    </edge>
    <edge id=":J21_7" function="internal">
        <lane id=":J21_7_0" index="0" speed="13.89" length="27.20" shape="-45.20,-13.60 -45.20,13.60"/>
    </edge>
    <edge id=":J21_8" function="internal">
        <lane id=":J21_8_0" index="0" speed="10.36" length="12.07" shape="-48.40,-13.60 -49.35,-6.95 -52.10,-2.36"/>
    </edge>
    <edge id=":J21_14" function="internal">
        <lane id=":J21_14_0" index="0" speed="10.36" length="12.44" shape="-52.10,-2.36 -52.20,-2.20 -56.95,0.65 -63.60,1.60"/>
    </edge>
    <edge id=":J21_9" function="internal">
        <lane id=":J21_9_0" index="0" speed="6.51" length="9.03" shape="-63.60,-8.00 -61.15,-8.35 -59.40,-9.40 -58.35,-11.15 -58.00,-13.60"/>
    </edge>
    <edge id=":J21_10" function="internal">
        <lane id=":J21_10_0" index="0" speed="13.89" length="27.20" shape="-63.60,-4.80 -36.40,-4.80"/>
    </edge>
    <edge id=":J21_11" function="internal">
        <lane id=":J21_11_0" index="0" speed="10.36" length="12.07" shape="-63.60,-1.60 -56.95,-0.65 -52.36,2.10"/>
    </edge>
    <edge id=":J21_15" function="internal">
        <lane id=":J21_15_0" index="0" speed="10.36" length="12.44" shape="-52.36,2.10 -52.20,2.20 -49.35,6.95 -48.40,13.60"/>
    </edge>
    <edge id=":J22_0" function="internal">
        <lane id=":J22_0_0" index="0" speed="6.51" length="9.03" shape="92.00,13.60 91.65,11.15 90.60,9.40 88.85,8.35 86.40,8.00"/>
    </edge>
    <edge id=":J22_1" function="internal">
        <lane id=":J22_1_0" index="0" speed="13.89" length="27.20" shape="95.20,13.60 95.20,-13.60"/>
    </edge>
    <edge id=":J22_2" function="internal">
        <lane id=":J22_2_0" index="0" speed="10.36" length="12.07" shape="98.40,13.60 99.35,6.95 102.10,2.36"/>
    </edge>
    <edge id=":J22_12" function="internal">
        <lane id=":J22_12_0" index="0" speed="10.36" length="12.44" shape="102.10,2.36 102.20,2.20 106.95,-0.65 113.60,-1.60"/>
    </edge>
    <edge id=":J22_3" function="internal">
        <lane id=":J22_3_0" index="0" speed="6.51" length="9.03" shape="113.60,8.00 111.15,8.35 109.40,9.40 108.35,11.15 108.00,13.60"/>
    </edge>
    <edge id=":J22_4" function="internal">
        <lane id=":J22_4_0" index="0" speed="13.89" length="27.20" shape="113.60,4.80 86.40,4.80"/>
    </edge>
    <edge id=":J22_5" function="internal">
        <lane id=":J22_5_0" index="0" speed="10.36" length="12.07" shape="113.60,1.60 106.95,0.65 102.36,-2.10"/>
    </edge>
    <edge id=":J22_13" function="internal">
        <lane id=":J22_13_0" index="0" speed="10.36" length="12.44" shape="102.36,-2.10 102.20,-2.20 99.35,-6.95 98.40,-13.60"/>
    </edge>
    <edge id=":J22_6" function="internal">
        <lane id=":J22_6_0" index="0" speed="6.51" length="9.03" shape="108.00,-13.60 108.35,-11.15 109.40,-9.40 111.15,-8.35 113.60,-8.00"/>
    </edge>
    <edge id=":J22_7" function="internal">
        <lane id=":J22_7_0" index="0" speed="13.89" length="27.20" shape="104.80,-13.60 104.80,13.60"/>
    </edge>
    <edge id=":J22_8" function="internal">
        <lane id=":J22_8_0" index="0" speed="10.36" length="12.07" shape="101.60,-13.60 100.65,-6.95 97.90,-2.36"/>
    </edge>
    <edge id=":J22_14" function="internal">
        <lane id=":J22_14_0" index="0" speed="10.36" length="12.44" shape="97.90,-2.36 97.80,-2.20 93.05,0.65 86.40,1.60"/>
    </edge>
    <edge id=":J22_9" function="internal">
        <lane id=":J22_9_0" index="0" speed="6.51" length="9.03" shape="86.40,-8.00 88.85,-8.35 90.60,-9.40 91.65,-11.15 92.00,-13.60"/>
    </edge>
    <edge id=":J22_10" function="internal">
        <lane id=":J22_10_0" index="0" speed="13.89" length="27.20" shape="86.40,-4.80 113.60,-4.80"/>
    </edge>
    <edge id=":J22_11" function="internal">
        <lane id=":J22_11_0" index="0" speed="10.36" length="12.07" shape="86.40,-1.60 93.05,-0.65 97.64,2.10"/>
    </edge>
    <edge id=":J22_15" function="internal">
        <lane id=":J22_15_0" index="0" speed="10.36" length="12.44" shape="97.64,2.10 97.80,2.20 100.65,6.95 101.60,13.60"/>
    </edge>
    <edge id=":J24_0" function="internal">
        <lane id=":J24_0_0" index="0" speed="6.51" length="9.03" shape="-58.00,-136.40 -58.35,-138.85 -59.40,-140.60 -61.15,-141.65 -63.60,-142.00"/>
    </edge>
    <edge id=":J24_1" function="internal">
        <lane id=":J24_1_0" index="0" speed="13.89" length="27.20" shape="-54.80,-136.40 -54.80,-163.60"/>
    </edge>
    <edge id=":J24_2" function="internal">
        <lane id=":J24_2_0" index="0" speed="10.36" length="12.07" shape="-51.60,-136.40 -50.65,-143.05 -47.90,-147.64"/>
    </edge>
    <edge id=":J24_12" function="internal">
        <lane id=":J24_12_0" index="0" speed="10.36" length="12.44" shape="-47.90,-147.64 -47.80,-147.80 -43.05,-150.65 -36.40,-151.60"/>
    </edge>
    <edge id=":J24_3" function="internal">
        <lane id=":J24_3_0" index="0" speed="6.51" length="9.03" shape="-36.40,-142.00 -38.85,-141.65 -40.60,-140.60 -41.65,-138.85 -42.00,-136.40"/>
    </edge>
    <edge id=":J24_4" function="internal">
        <lane id=":J24_4_0" index="0" speed="13.89" length="27.20" shape="-36.40,-145.20 -63.60,-145.20"/>
    </edge>
    <edge id=":J24_5" function="internal">
        <lane id=":J24_5_0" index="0" speed="10.36" length="12.07" shape="-36.40,-148.40 -43.05,-149.35 -47.64,-152.10"/>
    </edge>
    <edge id=":J24_13" function="internal">
        <lane id=":J24_13_0" index="0" speed="10.36" length="12.44" shape="-47.64,-152.10 -47.80,-152.20 -50.65,-156.95 -51.60,-163.60"/>
    </edge>
    <edge id=":J24_6" function="internal">
        <lane id=":J24_6_0" index="0" speed="6.51" length="9.03" shape="-42.00,-163.60 -41.65,-161.15 -40.60,-159.40 -38.85,-158.35 -36.40,-158.00"/>
    </edge>
    <edge id=":J24_7" function="internal">
        <lane id=":J24_7_0" index="0" speed="13.89" length="27.20" shape="-45.20,-163.60 -45.20,-136.40"/>
    </edge>
    <edge id=":J24_8" function="internal">
        <lane id=":J24_8_0" index="0" speed="10.36" length="12.07" shape="-48.40,-163.60 -49.35,-156.95 -52.10,-152.36"/>
    </edge>
    <edge id=":J24_14" function="internal">
        <lane id=":J24_14_0" index="0" speed="10.36" length="12.44" shape="-52.10,-152.36 -52.20,-152.20 -56.95,-149.35 -63.60,-148.40"/>
    </edge>
    <edge id=":J24_9" function="internal">
        <lane id=":J24_9_0" index="0" speed="6.51" length="9.03" shape="-63.60,-158.00 -61.15,-158.35 -59.40,-159.40 -58.35,-161.15 -58.00,-163.60"/>
    </edge>
    <edge id=":J24_10" function="internal">
        <lane id=":J24_10_0" index="0" speed="13.89" length="27.20" shape="-63.60,-154.80 -36.40,-154.80"/>
    </edge>
    <edge id=":J24_11" function="internal">
        <lane id=":J24_11_0" index="0" speed="10.36" length="12.07" shape="-63.60,-151.60 -56.95,-150.65 -52.36,-147.90"/>
    </edge>
    <edge id=":J24_15" function="internal">
        <lane id=":J24_15_0" index="0" speed="10.36" length="12.44" shape="-52.36,-147.90 -52.20,-147.80 -49.35,-143.05 -48.40,-136.40"/>
    </edge>
    <edge id=":J25_0" function="internal">
        <lane id=":J25_0_0" index="0" speed="6.51" length="9.03" shape="92.00,-136.40 91.65,-138.85 90.60,-140.60 88.85,-141.65 86.40,-142.00"/>
    </edge>
    <edge id=":J25_1" function="internal">
        <lane id=":J25_1_0" index="0" speed="13.89" length="27.20" shape="95.20,-136.40 95.20,-163.60"/>
    </edge>
    <edge id=":J25_2" function="internal">
        <lane id=":J25_2_0" index="0" speed="10.36" length="12.07" shape="98.40,-136.40 99.35,-143.05 102.10,-147.64"/>
    </edge>
    <edge id=":J25_12" function="internal">
        <lane id=":J25_12_0" index="0" speed="10.36" length="12.44" shape="102.10,-147.64 102.20,-147.80 106.95,-150.65 113.60,-151.60"/>
    </edge>
    <edge id=":J25_3" function="internal">
        <lane id=":J25_3_0" index="0" speed="6.51" length="9.03" shape="113.60,-142.00 111.15,-141.65 109.40,-140.60 108.35,-138.85 108.00,-136.40"/>
    </edge>
    <edge id=":J25_4" function="internal">
        <lane id=":J25_4_0" index="0" speed="13.89" length="27.20" shape="113.60,-145.20 86.40,-145.20"/>
    </edge>
    <edge id=":J25_5" function="internal">
        <lane id=":J25_5_0" index="0" speed="10.36" length="12.07" shape="113.60,-148.40 106.95,-149.35 102.36,-152.10"/>
    </edge>
    <edge id=":J25_13" function="internal">
        <lane id=":J25_13_0" index="0" speed="10.36" length="12.44" shape="102.36,-152.10 102.20,-152.20 99.35,-156.95 98.40,-163.60"/>
    </edge>
    <edge id=":J25_6" function="internal">
        <lane id=":J25_6_0" index="0" speed="6.51" length="9.03" shape="108.00,-163.60 108.35,-161.15 109.40,-159.40 111.15,-158.35 113.60,-158.00"/>
    </edge>
    <edge id=":J25_7" function="internal">
        <lane id=":J25_7_0" index="0" speed="13.89" length="27.20" shape="104.80,-163.60 104.80,-136.40"/>
    </edge>
    <edge id=":J25_8" function="internal">
        <lane id=":J25_8_0" index="0" speed="10.36" length="12.07" shape="101.60,-163.60 100.65,-156.95 97.90,-152.36"/>
    </edge>
    <edge id=":J25_14" function="internal">
        <lane id=":J25_14_0" index="0" speed="10.36" length="12.44" shape="97.90,-152.36 97.80,-152.20 93.05,-149.35 86.40,-148.40"/>
    </edge>
    <edge id=":J25_9" function="internal">
        <lane id=":J25_9_0" index="0" speed="6.51" length="9.03" shape="86.40,-158.00 88.85,-158.35 90.60,-159.40 91.65,-161.15 92.00,-163.60"/>
    </edge>
    <edge id=":J25_10" function="internal">
        <lane id=":J25_10_0" index="0" speed="13.89" length="27.20" shape="86.40,-154.80 113.60,-154.80"/>
    </edge>
    <edge id=":J25_11" function="internal">
        <lane id=":J25_11_0" index="0" speed="10.36" length="12.07" shape="86.40,-151.60 93.05,-150.65 97.64,-147.90"/>
    </edge>
    <edge id=":J25_15" function="internal">
        <lane id=":J25_15_0" index="0" speed="10.36" length="12.44" shape="97.64,-147.90 97.80,-147.80 100.65,-143.05 101.60,-136.40"/>
    </edge>

    <edge id="-E0" from="J25" to="J22" priority="-1" length="80.00">
        <lane id="-E0_0" index="0" speed="13.89" length="80.00" shape="108.00,-136.40 108.00,-13.60"/>
        <lane id="-E0_1" index="1" speed="13.89" length="80.00" shape="104.80,-136.40 104.80,-13.60"/>
        <lane id="-E0_2" index="2" speed="13.89" length="80.00" shape="101.60,-136.40 101.60,-13.60"/>
    </edge>
    <edge id="-E10" from="J17" to="J19" priority="-1">
        <lane id="-E10_0" index="0" speed="13.89" length="136.40" shape="-192.00,13.60 -192.00,150.00"/>
        <lane id="-E10_1" index="1" speed="13.89" length="136.40" shape="-195.20,13.60 -195.20,150.00"/>
        <lane id="-E10_2" index="2" speed="13.89" length="136.40" shape="-198.40,13.60 -198.40,150.00"/>
    </edge>
    <edge id="-E11" from="J17" to="J20" priority="-1" length="80.00">
        <lane id="-E11_0" index="0" speed="13.89" length="80.00" shape="-208.00,-13.60 -208.00,-136.40"/>
        <lane id="-E11_1" index="1" speed="13.89" length="80.00" shape="-204.80,-13.60 -204.80,-136.40"/>
        <lane id="-E11_2" index="2" speed="13.89" length="80.00" shape="-201.60,-13.60 -201.60,-136.40"/>
    </edge>
    <edge id="-E12" from="J17" to="J21" priority="-1" length="80.00">
        <lane id="-E12_0" index="0" speed="13.89" length="80.00" shape="-186.40,-8.00 -63.60,-8.00"/>
        <lane id="-E12_1" index="1" speed="13.89" length="80.00" shape="-186.40,-4.80 -63.60,-4.80"/>
        <lane id="-E12_2" index="2" speed="13.89" length="80.00" shape="-186.40,-1.60 -63.60,-1.60"/>
    </edge>
    <edge id="-E13" from="J22" to="J21" priority="-1" length="80.00">
        <lane id="-E13_0" index="0" speed="13.89" length="80.00" shape="86.40,8.00 -36.40,8.00"/>
        <lane id="-E13_1" index="1" speed="13.89" length="80.00" shape="86.40,4.80 -36.40,4.80"/>
        <lane id="-E13_2" index="2" speed="13.89" length="80.00" shape="86.40,1.60 -36.40,1.60"/>
    </edge>
    <edge id="-E14" from="J21" to="J23" priority="-1">
        <lane id="-E14_0" index="0" speed="13.89" length="136.40" shape="-42.00,13.60 -42.00,150.00"/>
        <lane id="-E14_1" index="1" speed="13.89" length="136.40" shape="-45.20,13.60 -45.20,150.00"/>
        <lane id="-E14_2" index="2" speed="13.89" length="136.40" shape="-48.40,13.60 -48.40,150.00"/>
    </edge>
    <edge id="-E15" from="J25" to="J24" priority="-1" length="80.00">
        <lane id="-E15_0" index="0" speed="13.89" length="80.00" shape="86.40,-142.00 -36.40,-142.00"/>
        <lane id="-E15_1" index="1" speed="13.89" length="80.00" shape="86.40,-145.20 -36.40,-145.20"/>
        <lane id="-E15_2" index="2" speed="13.89" length="80.00" shape="86.40,-148.40 -36.40,-148.40"/>
    </edge>
    <edge id="-E16" from="J24" to="J20" priority="-1" length="80.00">
        <lane id="-E16_0" index="0" speed="13.89" length="80.00" shape="-63.60,-142.00 -186.40,-142.00"/>
        <lane id="-E16_1" index="1" speed="13.89" length="80.00" shape="-63.60,-145.20 -186.40,-145.20"/>
        <lane id="-E16_2" index="2" speed="13.89" length="80.00" shape="-63.60,-148.40 -186.40,-148.40"/>
    </edge>
    <edge id="-E17" from="J20" to="J26" priority="-1">
        <lane id="-E17_0" index="0" speed="13.89" length="136.40" shape="-213.60,-142.00 -350.00,-142.00"/>
        <lane id="-E17_1" index="1" speed="13.89" length="136.40" shape="-213.60,-145.20 -350.00,-145.20"/>
        <lane id="-E17_2" index="2" speed="13.89" length="136.40" shape="-213.60,-148.40 -350.00,-148.40"/>
    </edge>
    <edge id="-E18" from="J20" to="J27" priority="-1">
        <lane id="-E18_0" index="0" speed="13.89" length="136.40" shape="-208.00,-163.60 -208.00,-300.00"/>
        <lane id="-E18_1" index="1" speed="13.89" length="136.40" shape="-204.80,-163.60 -204.80,-300.00"/>
        <lane id="-E18_2" index="2" speed="13.89" length="136.40" shape="-201.60,-163.60 -201.60,-300.00"/>
    </edge>
    <edge id="-E19" from="J28" to="J24" priority="-1">
        <lane id="-E19_0" index="0" speed="13.89" length="136.40" shape="-42.00,-300.00 -42.00,-163.60"/>
        <lane id="-E19_1" index="1" speed="13.89" length="136.40" shape="-45.20,-300.00 -45.20,-163.60"/>
        <lane id="-E19_2" index="2" speed="13.89" length="136.40" shape="-48.40,-300.00 -48.40,-163.60"/>
    </edge>
    <edge id="-E2" from="J1" to="J22" priority="-1">
        <lane id="-E2_0" index="0" speed="13.89" length="136.40" shape="92.00,150.00 92.00,13.60"/>
        <lane id="-E2_1" index="1" speed="13.89" length="136.40" shape="95.20,150.00 95.20,13.60"/>
        <lane id="-E2_2" index="2" speed="13.89" length="136.40" shape="98.40,150.00 98.40,13.60"/>
    </edge>
    <edge id="-E20" from="J24" to="J21" priority="-1" length="80.00">
        <lane id="-E20_0" index="0" speed="13.89" length="80.00" shape="-42.00,-136.40 -42.00,-13.60"/>
        <lane id="-E20_1" index="1" speed="13.89" length="80.00" shape="-45.20,-136.40 -45.20,-13.60"/>
        <lane id="-E20_2" index="2" speed="13.89" length="80.00" shape="-48.40,-136.40 -48.40,-13.60"/>
    </edge>
    <edge id="-E3" from="J2" to="J25" priority="-1">
        <lane id="-E3_0" index="0" speed="13.89" length="136.40" shape="108.00,-300.00 108.00,-163.60"/>
        <lane id="-E3_1" index="1" speed="13.89" length="136.40" shape="104.80,-300.00 104.80,-163.60"/>
        <lane id="-E3_2" index="2" speed="13.89" length="136.40" shape="101.60,-300.00 101.60,-163.60"/>
    </edge>
    <edge id="-E4" from="J3" to="J25" priority="-1">
        <lane id="-E4_0" index="0" speed="13.89" length="136.40" shape="250.00,-142.00 113.60,-142.00"/>
        <lane id="-E4_1" index="1" speed="13.89" length="136.40" shape="250.00,-145.20 113.60,-145.20"/>
        <lane id="-E4_2" index="2" speed="13.89" length="136.40" shape="250.00,-148.40 113.60,-148.40"/>
    </edge>
    <edge id="-E5" from="J4" to="J22" priority="-1">
        <lane id="-E5_0" index="0" speed="13.89" length="136.40" shape="250.00,8.00 113.60,8.00"/>
        <lane id="-E5_1" index="1" speed="13.89" length="136.40" shape="250.00,4.80 113.60,4.80"/>
        <lane id="-E5_2" index="2" speed="13.89" length="136.40" shape="250.00,1.60 113.60,1.60"/>
    </edge>
    <edge id="-E9" from="J17" to="J16" priority="-1">
        <lane id="-E9_0" index="0" speed="13.89" length="136.40" shape="-213.60,8.00 -350.00,8.00"/>
        <lane id="-E9_1" index="1" speed="13.89" length="136.40" shape="-213.60,4.80 -350.00,4.80"/>
        <lane id="-E9_2" index="2" speed="13.89" length="136.40" shape="-213.60,1.60 -350.00,1.60"/>
    </edge>
    <edge id="E0" from="J22" to="J25" priority="-1" length="80.00">
        <lane id="E0_0" index="0" speed="13.89" length="80.00" shape="92.00,-13.60 92.00,-136.40"/>
        <lane id="E0_1" index="1" speed="13.89" length="80.00" shape="95.20,-13.60 95.20,-136.40"/>
        <lane id="E0_2" index="2" speed="13.89" length="80.00" shape="98.40,-13.60 98.40,-136.40"/>
    </edge>
    <edge id="E10" from="J19" to="J17" priority="-1">
        <lane id="E10_0" index="0" speed="13.89" length="136.40" shape="-208.00,150.00 -208.00,13.60"/>
        <lane id="E10_1" index="1" speed="13.89" length="136.40" shape="-204.80,150.00 -204.80,13.60"/>
        <lane id="E10_2" index="2" speed="13.89" length="136.40" shape="-201.60,150.00 -201.60,13.60"/>
    </edge>
    <edge id="E11" from="J20" to="J17" priority="-1" length="80.00">
        <lane id="E11_0" index="0" speed="13.89" length="80.00" shape="-192.00,-136.40 -192.00,-13.60"/>
        <lane id="E11_1" index="1" speed="13.89" length="80.00" shape="-195.20,-136.40 -195.20,-13.60"/>
        <lane id="E11_2" index="2" speed="13.89" length="80.00" shape="-198.40,-136.40 -198.40,-13.60"/>
    </edge>
    <edge id="E12" from="J21" to="J17" priority="-1" length="80.00">
        <lane id="E12_0" index="0" speed="13.89" length="80.00" shape="-63.60,8.00 -186.40,8.00"/>
        <lane id="E12_1" index="1" speed="13.89" length="80.00" shape="-63.60,4.80 -186.40,4.80"/>
        <lane id="E12_2" index="2" speed="13.89" length="80.00" shape="-63.60,1.60 -186.40,1.60"/>
    </edge>
    <edge id="E13" from="J21" to="J22" priority="-1" length="80.00">
        <lane id="E13_0" index="0" speed="13.89" length="80.00" shape="-36.40,-8.00 86.40,-8.00"/>
        <lane id="E13_1" index="1" speed="13.89" length="80.00" shape="-36.40,-4.80 86.40,-4.80"/>
        <lane id="E13_2" index="2" speed="13.89" length="80.00" shape="-36.40,-1.60 86.40,-1.60"/>
    </edge>
    <edge id="E14" from="J23" to="J21" priority="-1">
        <lane id="E14_0" index="0" speed="13.89" length="136.40" shape="-58.00,150.00 -58.00,13.60"/>
        <lane id="E14_1" index="1" speed="13.89" length="136.40" shape="-54.80,150.00 -54.80,13.60"/>
        <lane id="E14_2" index="2" speed="13.89" length="136.40" shape="-51.60,150.00 -51.60,13.60"/>
    </edge>
    <edge id="E15" from="J24" to="J25" priority="-1" length="80.00">
        <lane id="E15_0" index="0" speed="13.89" length="80.00" shape="-36.40,-158.00 86.40,-158.00"/>
        <lane id="E15_1" index="1" speed="13.89" length="80.00" shape="-36.40,-154.80 86.40,-154.80"/>
        <lane id="E15_2" index="2" speed="13.89" length="80.00" shape="-36.40,-151.60 86.40,-151.60"/>
    </edge>
    <edge id="E16" from="J20" to="J24" priority="-1" length="80.00">
        <lane id="E16_0" index="0" speed="13.89" length="80.00" shape="-186.40,-158.00 -63.60,-158.00"/>
        <lane id="E16_1" index="1" speed="13.89" length="80.00" shape="-186.40,-154.80 -63.60,-154.80"/>
        <lane id="E16_2" index="2" speed="13.89" length="80.00" shape="-186.40,-151.60 -63.60,-151.60"/>
    </edge>
    <edge id="E17" from="J26" to="J20" priority="-1">
        <lane id="E17_0" index="0" speed="13.89" length="136.40" shape="-350.00,-158.00 -213.60,-158.00"/>
        <lane id="E17_1" index="1" speed="13.89" length="136.40" shape="-350.00,-154.80 -213.60,-154.80"/>
        <lane id="E17_2" index="2" speed="13.89" length="136.40" shape="-350.00,-151.60 -213.60,-151.60"/>
    </edge>
    <edge id="E18" from="J27" to="J20" priority="-1">
        <lane id="E18_0" index="0" speed="13.89" length="136.40" shape="-192.00,-300.00 -192.00,-163.60"/>
        <lane id="E18_1" index="1" speed="13.89" length="136.40" shape="-195.20,-300.00 -195.20,-163.60"/>
        <lane id="E18_2" index="2" speed="13.89" length="136.40" shape="-198.40,-300.00 -198.40,-163.60"/>
    </edge>
    <edge id="E19" from="J24" to="J28" priority="-1">
        <lane id="E19_0" index="0" speed="13.89" length="136.40" shape="-58.00,-163.60 -58.00,-300.00"/>
        <lane id="E19_1" index="1" speed="13.89" length="136.40" shape="-54.80,-163.60 -54.80,-300.00"/>
        <lane id="E19_2" index="2" speed="13.89" length="136.40" shape="-51.60,-163.60 -51.60,-300.00"/>
    </edge>
    <edge id="E2" from="J22" to="J1" priority="-1">
        <lane id="E2_0" index="0" speed="13.89" length="136.40" shape="108.00,13.60 108.00,150.00"/>
        <lane id="E2_1" index="1" speed="13.89" length="136.40" shape="104.80,13.60 104.80,150.00"/>
        <lane id="E2_2" index="2" speed="13.89" length="136.40" shape="101.60,13.60 101.60,150.00"/>
    </edge>
    <edge id="E20" from="J21" to="J24" priority="-1" length="80.00">
        <lane id="E20_0" index="0" speed="13.89" length="80.00" shape="-58.00,-13.60 -58.00,-136.40"/>
        <lane id="E20_1" index="1" speed="13.89" length="80.00" shape="-54.80,-13.60 -54.80,-136.40"/>
        <lane id="E20_2" index="2" speed="13.89" length="80.00" shape="-51.60,-13.60 -51.60,-136.40"/>
    </edge>
    <edge id="E3" from="J25" to="J2" priority="-1">
        <lane id="E3_0" index="0" speed="13.89" length="136.40" shape="92.00,-163.60 92.00,-300.00"/>
        <lane id="E3_1" index="1" speed="13.89" length="136.40" shape="95.20,-163.60 95.20,-300.00"/>